@<TRIPOS>MOLECULE
D2B_187_3NXO
 24 26 0 0 0
SMALL
GASTEIGER

@<TRIPOS>ATOM
      1 C          15.2780    5.5660   -4.4420 C.3     1  UNL1        0.0003
      2 C          15.7100    7.9530   -3.5200 C.3     1  UNL1        0.0003
      3 C          14.2450    2.1620   -2.8100 C.3     1  UNL1        0.2525
      4 C          11.1680    6.1160   -1.6290 C.ar    1  UNL1       -0.0001
      5 C          10.9460    4.7340   -1.6950 C.ar    1  UNL1        0.0031
      6 C          12.4810    6.5950   -1.6690 C.ar    1  UNL1       -0.0013
      7 C          12.0100    3.8410   -1.8470 C.ar    1  UNL1        0.0366
      8 C          14.9380    5.0850    0.9690 C.ar    1  UNL1        0.1774
      9 C          15.9300    6.2520   -0.9910 C.3     1  UNL1        0.0342
     10 C          13.5610    5.7090   -1.7710 C.ar    1  UNL1        0.0118
     11 C          13.3400    4.3240   -1.9300 C.ar    1  UNL1        0.1347
     12 C          15.8310    5.9140    0.3830 C.ar    1  UNL1        0.0231
     13 C          16.7780    6.3020    1.3740 C.ar    1  UNL1        0.0875
     14 C          17.8910    7.1780    1.5080 C.ar    1  UNL1        0.1769
     15 C          16.2830    5.7940    2.5590 C.ar    1  UNL1        0.2347
     16 C          17.8910    6.8630    3.7910 C.ar    1  UNL1        0.2604
     17 C          14.9520    6.6890   -3.3980 C.3     1  UNL1        0.0045
     18 C          14.8550    6.2120   -1.9160 C.3     1  UNL1        0.0298
     19 N          18.4640    7.8490    0.4940 N.pl3   1  UNL1       -0.1070
     20 N          18.3820    7.1350    5.0000 N.pl3   1  UNL1       -0.0859
     21 N          18.3990    7.4850    2.7330 N.ar    1  UNL1       -0.1927
     22 N          16.8680    5.9390    3.7380 N.ar    1  UNL1       -0.1758
     23 O          15.2270    4.9440    2.3660 O.2     1  UNL1       -0.4332
     24 O          14.4180    3.4600   -2.0810 O.3     1  UNL1       -0.4717
@<TRIPOS>BOND
     1     1    17    1
     2     2    17    1
     3     3    24    1
     4     4     5   ar
     5     4     6   ar
     6     5     7   ar
     7     6    10   ar
     8     7    11   ar
     9     8    12   ar
    10     8    23   ar
    11     9    12    1
    12    18     9    1
    13    10    11   ar
    14    10    18    1
    15    11    24    1
    16    12    13   ar
    17    13    14   ar
    18    13    15   ar
    19    14    19    1
    20    14    21   ar
    21    15    22   ar
    22    15    23   ar
    23    16    20    1
    24    16    21   ar
    25    16    22   ar
    26    17    18    1
