@<TRIPOS>MOLECULE
HUX_803_1E66
 21 24 0 0 0
SMALL
GASTEIGER

@<TRIPOS>ATOM
      1 C           4.3940   63.6190   64.1310 C.3     1  UNL1        0.0047
      2 C           4.9340   70.6300   69.2740 C.ar    1  UNL1        0.0115
      3 C           3.9130   70.3030   68.4610 C.ar    1  UNL1        0.0037
      4 C           6.6700   70.2770   67.4340 C.ar    1  UNL1        0.0305
      5 C           5.5190   68.7840   62.9970 C.3     1  UNL1        0.0459
      6 C           3.1710   68.5550   62.2170 C.3     1  UNL1        0.0095
      7 C           4.2820   66.4050   62.9960 C.3     1  UNL1        0.0221
      8 C           2.3030   67.1800   64.1500 C.2     1  UNL1       -0.0305
      9 C           3.2790   64.6360   64.4660 C.3     1  UNL1        0.0217
     10 C           6.3780   70.6350   68.8450 C.ar    1  UNL1        0.0592
     11 C           4.2480   69.9120   67.0430 C.ar    1  UNL1        0.0342
     12 C           5.5690   69.9500   66.6660 C.ar    1  UNL1        0.0830
     13 C           4.9750   69.1980   64.4700 C.ar    1  UNL1        0.0566
     14 C           3.6230   69.1100   64.7520 C.ar    1  UNL1        0.0119
     15 C           3.2280   69.5120   66.1460 C.ar    1  UNL1        0.0879
     16 C           4.5270   67.8800   62.2460 C.3     1  UNL1        0.0106
     17 C           2.6210   68.6020   63.7090 C.3     1  UNL1        0.0461
     18 C           3.3050   66.0890   63.8490 C.2     1  UNL1       -0.0482
     19 N           1.8860   69.4300   66.4690 N.pl3   1  UNL1       -0.1283
     20 N           5.9600   69.5810   65.3090 N.ar    1  UNL1       -0.2499
     21 CL          7.5600   70.9960   69.9590 Cl      1  UNL1       -0.0822
@<TRIPOS>BOND
     1     1     9    1
     2     2     3   ar
     3     2    10   ar
     4     3    11   ar
     5     4    10   ar
     6     4    12   ar
     7     5    13    1
     8    16     5    1
     9     6    16    1
    10     6    17    1
    11     7    16    1
    12     7    18    1
    13    17     8    1
    14     8    18    2
    15     9    18    1
    16    10    21    1
    17    11    12   ar
    18    11    15   ar
    19    12    20   ar
    20    13    14   ar
    21    13    20   ar
    22    14    15   ar
    23    14    17    1
    24    15    19    1
