@<TRIPOS>MOLECULE
JIN_600_2HZI
 29 32 0 0 0
SMALL
GASTEIGER

@<TRIPOS>ATOM
      1 C           9.2220   11.4610    1.9550 C.3     1  UNL1        0.0334
      2 C          15.1530   16.0020    5.3110 C.3     1  UNL1        0.1350
      3 C          22.4560   17.8380    4.9110 C.ar    1  UNL1        0.0017
      4 C          22.0520   16.8670    5.8630 C.ar    1  UNL1        0.0114
      5 C          21.7110   18.0230    3.7110 C.ar    1  UNL1        0.0114
      6 C          12.2820   13.4030    4.1210 C.ar    1  UNL1        0.0189
      7 C          10.9270   13.7090    4.3430 C.ar    1  UNL1        0.0306
      8 C          11.6930   11.7860    2.4860 C.ar    1  UNL1        0.0146
      9 C          18.7180   14.5070    3.5840 C.ar    1  UNL1        0.0093
     10 C          17.3840   12.6850    2.6400 C.ar    1  UNL1        0.1048
     11 C          10.3390   12.1550    2.6880 C.ar    1  UNL1        0.0069
     12 C          12.7210   12.4780    3.1580 C.ar    1  UNL1        0.0734
     13 C           9.9420   13.0810    3.6230 C.ar    1  UNL1        0.1362
     14 C          20.8670   16.1450    5.6450 C.ar    1  UNL1        0.0586
     15 C          20.5380   17.2630    3.5440 C.ar    1  UNL1        0.0586
     16 C          17.5060   13.8530    3.4140 C.ar    1  UNL1        0.0537
     17 C          18.7910   15.6810    4.3350 C.ar    1  UNL1        0.0580
     18 C          20.1290   16.3200    4.5030 C.ar    1  UNL1        0.0257
     19 C          16.3920   14.4070    3.9860 C.ar    1  UNL1        0.1505
     20 C          17.6050   16.1330    4.9300 C.ar    1  UNL1        0.2620
     21 C          15.1360   12.7130    3.0870 C.ar    1  UNL1        0.2422
     22 N          16.1630   12.1260    2.5210 N.ar    1  UNL1       -0.2105
     23 N          15.1830   13.8300    3.8310 N.ar    1  UNL1       -0.1946
     24 N          13.9880   12.0550    2.8670 N.pl3   1  UNL1       -0.1776
     25 N          16.4410   15.4940    4.7440 N.ar    1  UNL1       -0.2785
     26 O          17.5860   17.1530    5.6210 O.2     1  UNL1       -0.2669
     27 F           8.6710   13.3630    3.8870 F       1  UNL1       -0.2045
     28 CL         20.3770   14.9170    6.8500 Cl      1  UNL1       -0.0822
     29 CL         19.6970   17.5810    2.0470 Cl      1  UNL1       -0.0822
@<TRIPOS>BOND
     1     1    11    1
     2     2    25    1
     3     3     4   ar
     4     3     5   ar
     5     4    14   ar
     6     5    15   ar
     7     6     7   ar
     8     6    12   ar
     9     7    13   ar
    10     8    11   ar
    11     8    12   ar
    12     9    16   ar
    13     9    17   ar
    14    10    16   ar
    15    10    22   ar
    16    11    13   ar
    17    12    24    1
    18    13    27    1
    19    14    18   ar
    20    14    28    1
    21    15    18   ar
    22    15    29    1
    23    16    19   ar
    24    17    18    1
    25    17    20   ar
    26    19    23   ar
    27    19    25   ar
    28    20    25   ar
    29    20    26    2
    30    21    22   ar
    31    21    23   ar
    32    21    24    1
