@<TRIPOS>MOLECULE
NVB_A1133_3LPB
 33 36 0 0 0
SMALL
GASTEIGER

@<TRIPOS>ATOM
      1 C         110.2420   64.6810    6.6980 C.3     1  UNL1        0.1362
      2 C         115.4890   69.4610   16.4860 C.3     1  UNL1        0.2526
      3 C         111.3400   65.8480   11.6450 C.3     1  UNL1        0.2526
      4 C         112.1690   65.9590   16.2470 C.3     1  UNL1        0.2528
      5 C         119.1050   66.8130    7.4980 C.ar    1  UNL1        0.0016
      6 C         117.9130   66.0900    7.3280 C.ar    1  UNL1        0.0016
      7 C         119.2750   67.5650    8.6720 C.ar    1  UNL1        0.0206
      8 C         115.0450   64.5560    9.1440 C.ar    1  UNL1        0.0014
      9 C         115.1560   65.2220    6.7890 C.ar    1  UNL1        0.0014
     10 C         113.8950   63.8160    8.8730 C.ar    1  UNL1        0.0200
     11 C         114.0210   64.4470    6.5110 C.ar    1  UNL1        0.0200
     12 C         115.4820   67.9800   13.9050 C.ar    1  UNL1        0.0418
     13 C         114.0510   66.9160   12.2940 C.ar    1  UNL1        0.0418
     14 C         117.5160   68.2960   11.7660 C.ar    1  UNL1        0.1179
     15 C         115.6780   65.2800    8.0970 C.ar    1  UNL1        0.0016
     16 C         113.3930   63.7400    7.5650 C.ar    1  UNL1        0.1236
     17 C         116.9060   66.0850    8.3270 C.ar    1  UNL1        0.0191
     18 C         118.2740   67.5680    9.6660 C.ar    1  UNL1        0.0989
     19 C         115.2550   67.5140   12.6070 C.ar    1  UNL1        0.0254
     20 C         114.4590   67.8790   14.8820 C.ar    1  UNL1        0.1755
     21 C         113.0240   66.8340   13.2520 C.ar    1  UNL1        0.1755
     22 C         116.3370   67.5720   11.5870 C.ar    1  UNL1        0.1006
     23 C         117.1090   66.8010    9.5090 C.ar    1  UNL1        0.0988
     24 C         113.2420   67.3150   14.5460 C.ar    1  UNL1        0.2061
     25 N         118.4520   68.2780   10.7980 N.ar    1  UNL1       -0.2407
     26 N         116.1580   66.8230   10.4690 N.ar    1  UNL1       -0.2423
     27 N         111.0970   63.6160    6.2030 N.3     1  UNL1       -0.0762
     28 O         111.0950   62.6620    8.4100 O.2     1  UNL1       -0.1516
     29 O         112.3600   61.5320    6.6270 O.2     1  UNL1       -0.1516
     30 O         114.6180   68.3650   16.1720 O.3     1  UNL1       -0.4683
     31 O         111.7790   66.2830   12.9670 O.3     1  UNL1       -0.4683
     32 O         112.2540   67.2060   15.5110 O.3     1  UNL1       -0.4654
     33 S         111.9540   62.7430    7.2580 S.O2    1  UNL1        0.0769
@<TRIPOS>BOND
     1     1    27    1
     2     2    30    1
     3     3    31    1
     4     4    32    1
     5     5     6   ar
     6     5     7   ar
     7     6    17   ar
     8     7    18   ar
     9     8    10   ar
    10     8    15   ar
    11     9    11   ar
    12     9    15   ar
    13    10    16   ar
    14    11    16   ar
    15    12    19   ar
    16    12    20   ar
    17    13    19   ar
    18    13    21   ar
    19    14    22   ar
    20    14    25   ar
    21    15    17    1
    22    16    33    1
    23    17    23   ar
    24    18    23   ar
    25    18    25   ar
    26    19    22    1
    27    20    24   ar
    28    20    30    1
    29    21    24   ar
    30    21    31    1
    31    22    26   ar
    32    23    26   ar
    33    24    32    1
    34    27    33    1
    35    28    33    2
    36    29    33    2
