@<TRIPOS>MOLECULE
4gv1_ligand
 30 33 0 0 0
SMALL
GASTEIGER

@<TRIPOS>ATOM
      1 CL        -16.1850   -0.4780    9.5900 Cl      1  UNL1       -0.0822
      2 C         -16.7230    0.6360   10.7890 C.ar    1  UNL1        0.0577
      3 C         -18.0150    0.5540   11.2850 C.ar    1  UNL1        0.0111
      4 C         -18.4180    1.4630   12.2500 C.ar    1  UNL1       -0.0018
      5 C         -15.8340    1.6050   11.2380 C.ar    1  UNL1        0.0111
      6 C         -16.2390    2.5110   12.2170 C.ar    1  UNL1       -0.0018
      7 C         -17.5340    2.4390   12.7240 C.ar    1  UNL1       -0.0024
      8 C         -18.0120    3.4110   13.7970 C.3     1  UNL1        0.1203
      9 C         -18.3850    2.6590   15.0960 C.3     1  UNL1        0.0617
     10 C         -18.7820    3.5840   16.2550 C.3     1  UNL1        0.1842
     11 O         -17.7080    4.4200   16.6410 O.3     1  UNL1       -0.2204
     12 N         -19.1830    4.1310   13.2710 N.am    1  UNL1       -0.1975
     13 C         -19.0740    5.1350   12.3450 C.2     1  UNL1        0.3029
     14 O         -17.9650    5.4540   11.9130 O.2     1  UNL1       -0.2668
     15 C         -20.3800    5.7800   11.8600 C.3     1  UNL1        0.2666
     16 C         -20.0940    6.9710   10.9410 C.3     1  UNL1        0.0982
     17 C         -19.5770    6.5580    9.5390 C.3     1  UNL1        0.0990
     18 N         -21.1720    6.2410   13.0230 N.4     1  UNL1        0.5931
     19 C         -21.1950    4.6930   11.0970 C.3     1  UNL1        0.0982
     20 C         -20.5100    4.3260    9.7760 C.3     1  UNL1        0.0990
     21 N         -20.5900    5.5900    9.0610 N.pl3   1  UNL1       -0.2927
     22 C         -21.6660    6.0240    8.2730 C.ar    1  UNL1        0.1364
     23 N         -21.6200    7.3640    7.9470 N.ar    1  UNL1       -0.2089
     24 C         -22.6390    7.9730    7.2530 C.ar    1  UNL1        0.2014
     25 N         -23.7110    7.2450    6.8310 N.ar    1  UNL1       -0.2048
     26 C         -22.7820    5.2800    7.8780 C.ar    1  UNL1        0.0690
     27 C         -23.2330    3.9630    7.9850 C.ar    1  UNL1        0.0265
     28 C         -24.4320    3.8200    7.3100 C.ar    1  UNL1        0.1008
     29 N         -24.7380    5.0480    6.8510 N.ar    1  UNL1       -0.2249
     30 C         -23.7630    5.9140    7.1610 C.ar    1  UNL1        0.1667
@<TRIPOS>UNITY_ATOM_ATTR
18 1
charge 1
@<TRIPOS>BOND
     1     1     2    1
     2     2     3   ar
     3     2     5   ar
     4     3     4   ar
     5     4     7   ar
     6     5     6   ar
     7     6     7   ar
     8     7     8    1
     9     8     9    1
    10     8    12    1
    11     9    10    1
    12    10    11    1
    13    12    13   am
    14    13    14    2
    15    13    15    1
    16    15    16    1
    17    15    18    1
    18    15    19    1
    19    16    17    1
    20    17    21    1
    21    19    20    1
    22    20    21    1
    23    21    22    1
    24    22    23   ar
    25    22    26   ar
    26    23    24   ar
    27    24    25   ar
    28    25    30   ar
    29    26    27   ar
    30    26    30   ar
    31    27    28   ar
    32    28    29   ar
    33    29    30   ar
