@<TRIPOS>MOLECULE
RIT_600_3NXU
 50 53 0 0 0
SMALL
GASTEIGER

@<TRIPOS>ATOM
      1 C          36.5430   -8.3010   36.1470 C.3     1  UNL1        0.0069
      2 C          37.8340   -8.9230   34.1240 C.3     1  UNL1        0.0069
      3 C          38.0390  -13.1510   33.0400 C.3     1  UNL1        0.0023
      4 C          39.1580  -14.5290   31.0500 C.3     1  UNL1        0.0023
      5 C          32.6190  -10.8720   31.3980 C.3     1  UNL1        0.1169
      6 C          42.0880  -20.8920   29.6360 C.ar    1  UNL1       -0.0000
      7 C          31.7620  -16.0070   29.4150 C.ar    1  UNL1       -0.0000
      8 C          41.1020  -20.0690   30.3700 C.ar    1  UNL1       -0.0003
      9 C          42.7580  -20.3590   28.3830 C.ar    1  UNL1       -0.0003
     10 C          32.1480  -14.6710   28.8600 C.ar    1  UNL1       -0.0003
     11 C          32.4610  -17.2540   28.9850 C.ar    1  UNL1       -0.0003
     12 C          40.7910  -18.7080   29.8500 C.ar    1  UNL1       -0.0042
     13 C          42.4530  -19.0150   27.8590 C.ar    1  UNL1       -0.0042
     14 C          33.2850  -14.5360   27.8570 C.ar    1  UNL1       -0.0039
     15 C          33.5710  -17.1400   27.9970 C.ar    1  UNL1       -0.0039
     16 C          35.4590  -21.3130   25.2050 C.ar    1  UNL1        0.1053
     17 C          34.9470  -12.9850   35.2120 C.ar    1  UNL1        0.0530
     18 C          33.7050  -20.9540   26.6040 C.ar    1  UNL1        0.1343
     19 C          41.0920  -16.8500   28.1340 C.3     1  UNL1        0.0511
     20 C          35.1130  -15.7470   26.5650 C.3     1  UNL1        0.0692
     21 C          33.3150  -12.5050   33.3500 C.3     1  UNL1        0.1414
     22 C          37.3240  -20.9920   26.5970 C.3     1  UNL1        0.2448
     23 C          37.5930  -15.9730   26.9140 C.2     1  UNL1        0.0204
     24 C          41.4860  -18.1910   28.5690 C.ar    1  UNL1       -0.0204
     25 C          33.9730  -15.7500   27.4450 C.ar    1  UNL1       -0.0164
     26 C          36.1420  -21.1130   26.1970 C.ar    1  UNL1        0.0714
     27 C          34.4510  -12.1430   34.2920 C.ar    1  UNL1        0.0858
     28 C          35.9180  -10.5120   34.9280 C.ar    1  UNL1        0.0875
     29 C          36.4970   -9.0150   34.8320 C.3     1  UNL1        0.0465
     30 C          37.9340  -13.6100   31.5300 C.3     1  UNL1        0.0290
     31 C          39.6280  -16.9330   27.5400 C.3     1  UNL1        0.1375
     32 C          38.9760  -15.5730   27.4740 C.3     1  UNL1        0.1952
     33 C          36.4750  -13.6980   30.6960 C.3     1  UNL1        0.1746
     34 C          36.4710  -15.6090   27.5160 C.2     1  UNL1        0.0537
     35 C          36.2120  -14.8980   29.9860 C.2     1  UNL1        0.2652
     36 C          34.6500  -12.3500   31.1130 C.2     1  UNL1        0.3239
     37 C          38.5630  -19.0920   26.7600 C.2     1  UNL1        0.4215
     38 N          34.1460  -21.2460   25.4000 N.ar    1  UNL1       -0.2350
     39 N          34.9860  -10.9290   34.2000 N.ar    1  UNL1       -0.2453
     40 N          39.2740  -17.9540   26.3690 N.am    1  UNL1       -0.1672
     41 N          35.6150  -13.3900   31.6320 N.am    1  UNL1       -0.1808
     42 N          36.6790  -14.7080   28.6930 N.am    1  UNL1       -0.1821
     43 N          33.5590  -11.9010   31.9300 N.am    1  UNL1       -0.2554
     44 O          39.7120  -14.8430   26.3070 O.3     1  UNL1       -0.2164
     45 O          35.4830  -15.7970   30.3250 O.2     1  UNL1       -0.2711
     46 O          34.8200  -11.8520   29.8490 O.2     1  UNL1       -0.2507
     47 O          38.2630  -19.2700   28.1460 O.2     1  UNL1       -0.2246
     48 O          37.9540  -19.8720   25.8940 O.3     1  UNL1       -0.4279
     49 S          36.2150  -11.9220   35.9190 S.2     1  UNL1       -0.0705
     50 S          35.0550  -20.7640   27.4330 S.2     1  UNL1       -0.0652
@<TRIPOS>BOND
     1     1    29    1
     2     2    29    1
     3     3    30    1
     4     4    30    1
     5     5    43    1
     6     6     8   ar
     7     6     9   ar
     8     7    10   ar
     9     7    11   ar
    10     8    12   ar
    11     9    13   ar
    12    10    14   ar
    13    11    15   ar
    14    12    24   ar
    15    13    24   ar
    16    14    25   ar
    17    15    25   ar
    18    16    26   ar
    19    16    38   ar
    20    17    27   ar
    21    17    49   ar
    22    18    38   ar
    23    18    50   ar
    24    19    24    1
    25    31    19    1
    26    20    25    1
    27    20    34    1
    28    21    27    1
    29    21    43    1
    30    22    26    1
    31    22    48    1
    32    23    32    1
    33    23    34    2
    34    26    50   ar
    35    27    39   ar
    36    28    29    1
    37    28    39   ar
    38    28    49   ar
    39    30    33    1
    40    31    32    1
    41    31    40    1
    42    32    44    1
    43    33    35    1
    44    33    41    1
    45    34    42    1
    46    35    42   am
    47    35    45    2
    48    36    41   am
    49    36    43   am
    50    36    46    2
    51    37    40   am
    52    37    47    2
    53    37    48    1
