@<TRIPOS>MOLECULE
K30_1_3CJO
 33 36 0 0 0
SMALL
GASTEIGER

@<TRIPOS>ATOM
      1 C          12.6510   21.8440  109.7570 C.3     1  UNL1        0.2024
      2 C          17.9100   18.4110  110.2190 C.3     1  UNL1        0.1165
      3 C          18.1600   13.0720  113.8660 C.ar    1  UNL1       -0.0000
      4 C          18.7830   14.1930  113.3090 C.ar    1  UNL1       -0.0003
      5 C          17.3260   12.3420  113.0510 C.ar    1  UNL1       -0.0003
      6 C          18.5390   14.4640  111.9160 C.ar    1  UNL1       -0.0027
      7 C          17.0570   12.6660  111.6550 C.ar    1  UNL1       -0.0027
      8 C          22.5730   15.3840  105.3700 C.ar    1  UNL1        0.0319
      9 C          22.5850   14.2540  106.1840 C.ar    1  UNL1        0.0316
     10 C          20.5240   16.1590  106.4350 C.ar    1  UNL1        0.0276
     11 C          15.2570   19.3220  111.2690 C.3     1  UNL1        0.0855
     12 C          13.9770   20.1730  111.1400 C.3     1  UNL1        0.1408
     13 C          18.9250   13.8490  108.9320 C.3     1  UNL1        0.0313
     14 C          13.9780   20.0640  108.6330 C.3     1  UNL1        0.1763
     15 C          18.4480   15.9770  108.1590 C.3     1  UNL1        0.0996
     16 C          16.1590   13.8360  108.8560 C.3     1  UNL1        0.2043
     17 C          17.6920   13.7260  111.0500 C.ar    1  UNL1       -0.0036
     18 C          21.5310   16.3250  105.5060 C.ar    1  UNL1        0.1400
     19 C          21.5310   14.0200  107.0960 C.ar    1  UNL1        0.1363
     20 C          20.4900   14.9560  107.2490 C.ar    1  UNL1        0.0089
     21 C          15.4460   18.5370  109.9370 C.3     1  UNL1        0.1213
     22 C          19.3600   14.8260  108.1140 C.3     1  UNL1        0.0465
     23 C          15.3770   19.4550  108.7070 C.3     1  UNL1        0.2353
     24 C          16.6340   16.4090  110.0230 C.2     1  UNL1        0.3075
     25 C          17.5120   14.1540  109.4980 C.3     1  UNL1        0.1116
     26 N          13.9120   20.9790  109.8360 N.4     1  UNL1        0.3842
     27 N          17.5520   15.6400  109.2820 N.am    1  UNL1       -0.2609
     28 N          16.6500   17.7640  109.9710 N.am    1  UNL1       -0.2608
     29 O          15.9930   12.4730  108.6590 O.3     1  UNL1       -0.2183
     30 O          15.6870   15.8390  110.6690 O.2     1  UNL1       -0.2523
     31 F          21.5750   17.4130  104.7590 F       1  UNL1       -0.2042
     32 F          21.6310   12.8900  107.7890 F       1  UNL1       -0.2045
     33 F          16.2400   20.4850  108.9080 F       1  UNL1       -0.2291
@<TRIPOS>UNITY_ATOM_ATTR
26 1
charge 1
@<TRIPOS>BOND
     1    26     1    1
     2     2    28    1
     3     3     4   ar
     4     3     5   ar
     5     4     6   ar
     6     5     7   ar
     7     6    17   ar
     8     7    17   ar
     9     8     9   ar
    10     8    18   ar
    11     9    19   ar
    12    10    18   ar
    13    10    20   ar
    14    11    12    1
    15    11    21    1
    16    12    26    1
    17    13    22    1
    18    13    25    1
    19    14    23    1
    20    14    26    1
    21    15    22    1
    22    15    27    1
    23    25    16    1
    24    16    29    1
    25    17    25    1
    26    18    31    1
    27    19    20   ar
    28    19    32    1
    29    20    22    1
    30    21    23    1
    31    21    28    1
    32    23    33    1
    33    24    27   am
    34    24    28   am
    35    24    30    2
    36    25    27    1
