@<TRIPOS>MOLECULE
obj01
 25 28 0 0 0
SMALL
GASTEIGER

@<TRIPOS>ATOM
      1 C         -10.9920   -8.7960   60.6170 C.ar    1  UNL1       -0.0009
      2 C         -11.2410   -8.2970   61.8890 C.ar    1  UNL1        0.0417
      3 C         -11.9840   -7.1330   62.0450 C.ar    1  UNL1        0.1957
      4 O         -12.2310   -6.6380   63.2860 O.3     1  UNL1       -0.2866
      5 C         -12.4760   -6.4690   60.9280 C.ar    1  UNL1        0.0417
      6 C         -12.2300   -6.9690   59.6570 C.ar    1  UNL1       -0.0009
      7 C         -11.4920   -8.1350   59.5010 C.ar    1  UNL1       -0.0202
      8 C         -11.2080   -8.6770   58.1010 C.3     1  UNL1        0.0498
      9 C          -9.7460   -9.1040   58.0060 C.3     1  UNL1        0.1200
     10 N          -9.4200   -9.5440   56.6440 N.pl3   1  UNL1       -0.2034
     11 C          -8.9530   -8.5930   55.8420 C.ar    1  UNL1        0.2415
     12 N          -8.5850   -8.8570   54.5780 N.ar    1  UNL1       -0.1757
     13 N          -8.8330   -7.3590   56.3580 N.ar    1  UNL1       -0.1769
     14 C          -8.3650   -6.3420   55.6260 C.ar    1  UNL1        0.2627
     15 N          -8.2660   -5.1250   56.1560 N.pl3   1  UNL1       -0.0858
     16 N          -7.9810   -6.5820   54.3090 N.ar    1  UNL1       -0.1614
     17 N          -7.5250   -5.8520   53.4280 N.ar    1  UNL1       -0.1374
     18 C          -8.1040   -7.8740   53.8000 C.ar    1  UNL1        0.2594
     19 N          -7.6760   -7.8290   52.5440 N.ar    1  UNL1       -0.1861
     20 C          -7.3130   -6.5650   52.3200 C.ar    1  UNL1        0.2196
     21 C          -6.8090   -6.0540   51.1310 C.ar    1  UNL1        0.1828
     22 C          -6.5540   -6.6880   49.9910 C.ar    1  UNL1        0.0440
     23 C          -6.0810   -5.7960   49.1210 C.ar    1  UNL1        0.0439
     24 C          -6.0340   -4.5980   49.7030 C.ar    1  UNL1        0.1798
     25 O          -6.4920   -4.7390   50.9840 O.2     1  UNL1       -0.4472
@<TRIPOS>BOND
     1     1     2   ar
     2     1     7   ar
     3     2     3   ar
     4     3     4    1
     5     3     5   ar
     6     5     6   ar
     7     6     7   ar
     8     7     8    1
     9     8     9    1
    10     9    10    1
    11    10    11    1
    12    11    12   ar
    13    11    13   ar
    14    12    18   ar
    15    13    14   ar
    16    14    15    1
    17    14    16   ar
    18    16    17   ar
    19    16    18   ar
    20    17    20   ar
    21    18    19   ar
    22    19    20   ar
    23    20    21    1
    24    21    22   ar
    25    21    25   ar
    26    22    23   ar
    27    23    24   ar
    28    24    25   ar
