@<TRIPOS>MOLECULE
FAP_A1300_1H00
 30 32 0 0 0
SMALL
GASTEIGER

@<TRIPOS>ATOM
      1 C           6.4420   19.8810    6.6120 C.3     1  UNL1        0.2027
      2 C           4.8050   19.2050    8.2910 C.3     1  UNL1        0.2027
      3 C          -1.7340   27.4480   12.7920 C.ar    1  UNL1        0.0047
      4 C          -2.8640   27.9370   12.0910 C.ar    1  UNL1        0.0311
      5 C          -0.4620   28.0280   12.5840 C.ar    1  UNL1        0.0311
      6 C           3.6480   28.5750    8.4680 C.ar    1  UNL1        0.0197
      7 C           3.7950   28.5970    6.0100 C.ar    1  UNL1        0.0197
      8 C           4.2480   27.2990    8.5010 C.ar    1  UNL1        0.0382
      9 C           4.3990   27.3140    6.0420 C.ar    1  UNL1        0.0382
     10 C           0.7130   30.5170    8.5790 C.ar    1  UNL1        0.0722
     11 C           0.3260   33.1000    7.8560 C.ar    1  UNL1        0.2013
     12 C           4.7670   21.5370    7.4440 C.3     1  UNL1        0.1764
     13 C           4.4640   24.1590    7.6170 C.3     1  UNL1        0.2443
     14 C           3.4120   29.2380    7.2190 C.ar    1  UNL1        0.0723
     15 C           4.6280   26.6560    7.2930 C.ar    1  UNL1        0.1388
     16 C          -2.7310   29.0150   11.1770 C.ar    1  UNL1        0.1575
     17 C          -0.3090   29.1050   11.6740 C.ar    1  UNL1        0.1575
     18 C           1.6140   31.1970    7.6890 C.ar    1  UNL1        0.1564
     19 C          -0.4010   31.2770    9.0660 C.ar    1  UNL1        0.1565
     20 C          -1.4540   29.6170   10.9470 C.ar    1  UNL1        0.1268
     21 C           5.3960   22.9350    7.6620 C.3     1  UNL1        0.2514
     22 N           1.3960   32.4840    7.3450 N.ar    1  UNL1       -0.2071
     23 N          -0.5690   32.5630    8.6890 N.ar    1  UNL1       -0.2071
     24 N           2.7940   30.5570    7.1260 N.pl3   1  UNL1       -0.1940
     25 N          -1.3980   30.7320    9.9800 N.pl3   1  UNL1       -0.1894
     26 N           5.6170   20.3410    7.7610 N.4     1  UNL1        0.3888
     27 O           6.2510   22.9720    8.7540 O.3     1  UNL1       -0.2127
     28 O           5.2070   25.3980    7.4400 O.3     1  UNL1       -0.4725
     29 F          -3.8490   29.4590   10.5210 F       1  UNL1       -0.2027
     30 F           0.9450   29.6210   11.5160 F       1  UNL1       -0.2027
@<TRIPOS>UNITY_ATOM_ATTR
26 1
charge 1
@<TRIPOS>BOND
     1     1    26    1
     2     2    26    1
     3     3     4   ar
     4     3     5   ar
     5     4    16   ar
     6     5    17   ar
     7     6     8   ar
     8     6    14   ar
     9     7     9   ar
    10     7    14   ar
    11     8    15   ar
    12     9    15   ar
    13    10    18   ar
    14    10    19   ar
    15    11    22   ar
    16    11    23   ar
    17    12    21    1
    18    12    26    1
    19    13    21    1
    20    13    28    1
    21    14    24    1
    22    15    28    1
    23    16    20   ar
    24    16    29    1
    25    17    20   ar
    26    17    30    1
    27    18    22   ar
    28    18    24    1
    29    19    23   ar
    30    19    25    1
    31    20    25    1
    32    21    27    1
