@<TRIPOS>MOLECULE
ZK1_263_3KGC
 27 29 0 0 0
SMALL
GASTEIGER

@<TRIPOS>ATOM
      1 C           6.6740   34.7860   -1.2450 C.ar    1  UNL1        0.0258
      2 C           7.3500   32.1330   -0.7670 C.ar    1  UNL1        0.0333
      3 C           7.4710   31.7820    2.2510 C.3     1  UNL1        0.1231
      4 C           4.9970   31.6050    1.5510 C.3     1  UNL1        0.1231
      5 C           7.0110   31.4360    3.6730 C.3     1  UNL1        0.1636
      6 C           4.7430   31.1350    2.9910 C.3     1  UNL1        0.1636
      7 C           8.7990   30.5650   -2.7050 C.3     1  UNL1        0.1678
      8 C           6.3110   34.1920   -0.0270 C.ar    1  UNL1        0.0863
      9 C           7.3690   34.0550   -2.2110 C.ar    1  UNL1        0.1005
     10 C           7.7000   32.7250   -1.9830 C.ar    1  UNL1        0.0820
     11 C           6.6600   32.8520    0.2000 C.ar    1  UNL1        0.0534
     12 C           8.4210   33.9440   -4.3910 C.ar    1  UNL1        0.3356
     13 C           8.7650   32.6040   -4.1710 C.ar    1  UNL1        0.3194
     14 C           5.5900   35.0360    1.0310 C.3     1  UNL1        0.4198
     15 N           7.7370   34.6560   -3.4210 N.ar    1  UNL1       -0.2023
     16 N           8.4080   31.9820   -2.9620 N.ar    1  UNL1       -0.2830
     17 N           6.3570   32.1470    1.3680 N.pl3   1  UNL1       -0.3028
     18 O          10.0950   30.6710   -0.1780 O.co2   1  UNL1       -0.3559
     19 O          10.8990   28.9740   -1.9370 O.co2   1  UNL1       -0.3559
     20 O           8.7130   34.4980   -5.4500 O.2     1  UNL1       -0.2599
     21 O           9.3540   31.9580   -5.0410 O.2     1  UNL1       -0.2617
     22 O          11.3540   31.4920   -2.2280 O.2     1  UNL1       -0.4582
     23 O           5.9190   30.5020    3.5360 O.3     1  UNL1       -0.3501
     24 F           6.4240   35.2010    2.0650 F       1  UNL1       -0.1658
     25 F           5.3180   36.2190    0.4970 F       1  UNL1       -0.1658
     26 F           4.4930   34.4630    1.4630 F       1  UNL1       -0.1658
     27 P          10.4120   30.4730   -1.7570 P.3     1  UNL1        0.1401
@<TRIPOS>UNITY_ATOM_ATTR
18 1
charge -1
19 1
charge -1
@<TRIPOS>BOND
     1     1     8   ar
     2     1     9   ar
     3     2    10   ar
     4     2    11   ar
     5     3     5    1
     6     3    17    1
     7     4     6    1
     8     4    17    1
     9     5    23    1
    10     6    23    1
    11     7    16    1
    12     7    27    1
    13     8    11   ar
    14     8    14    1
    15     9    10   ar
    16     9    15   ar
    17    10    16   ar
    18    11    17    1
    19    12    13   ar
    20    12    15   ar
    21    12    20    2
    22    13    16   ar
    23    13    21    2
    24    14    24    1
    25    14    25    1
    26    14    26    1
    27    18    27    1
    28    19    27    1
    29    22    27    2
