@<TRIPOS>MOLECULE
*****
 21 22 0 0 0
SMALL
GASTEIGER

@<TRIPOS>ATOM
      1 O          24.7640    2.3600   -0.9410 O.3     1  UNL1       -0.2124
      2 C          25.5660    3.0570   -0.0240 C.3     1  UNL1        0.2574
      3 N          29.9900    7.3640    5.2960 N.1     1  UNL1       -0.1893
      4 C          26.2630    4.2520   -0.6910 C.3     1  UNL1        0.2370
      5 N          26.9110    3.8510   -1.9410 N.4     1  UNL1        0.4412
      6 C          27.7870    4.9400   -2.4080 C.3     1  UNL1        0.0979
      7 C          29.0440    4.9700   -1.5050 C.3     1  UNL1        0.0627
      8 C          27.0620    6.3200   -2.3240 C.3     1  UNL1        0.0627
      9 C          24.6660    3.6160    1.0780 C.3     1  UNL1        0.2445
     10 O          25.5330    3.9350    2.1590 O.3     1  UNL1       -0.4724
     11 C          25.0780    4.6550    3.2030 C.ar    1  UNL1        0.1401
     12 C          23.7370    4.5910    3.5450 C.ar    1  UNL1        0.0370
     13 C          23.2840    5.2990    4.6530 C.ar    1  UNL1        0.0047
     14 C          24.1640    6.0620    5.4170 C.ar    1  UNL1        0.0193
     15 C          25.5130    6.1200    5.0640 C.ar    1  UNL1        0.0850
     16 C          25.9620    5.4170    3.9460 C.ar    1  UNL1        0.0538
     17 N          26.5750    6.7510    5.5740 N.ar    1  UNL1       -0.2349
     18 C          27.6180    6.4450    4.8040 C.ar    1  UNL1        0.1492
     19 C          27.2630    5.6210    3.8050 C.ar    1  UNL1        0.0341
     20 C          28.9670    6.9090    5.0460 C.1     1  UNL1        0.1198
     21 C          28.1550    4.6290   -3.8810 C.3     1  UNL1        0.0627
@<TRIPOS>UNITY_ATOM_ATTR
5 1
charge 1
@<TRIPOS>BOND
     1     6    21    1
     2     6     8    1
     3     5     6    1
     4     6     7    1
     5     4     5    1
     6     2     1    1
     7     2     4    1
     8     2     9    1
     9     9    10    1
    10    10    11    1
    11    11    12   ar
    12    11    16   ar
    13    12    13   ar
    14    16    19   ar
    15    18    19   ar
    16    15    16   ar
    17    13    14   ar
    18    18    20    1
    19    17    18   ar
    20     3    20    3
    21    14    15   ar
    22    15    17   ar
