@<TRIPOS>MOLECULE
KIQ_901_2I78
 31 34 0 0 0
SMALL
GASTEIGER

@<TRIPOS>ATOM
      1 C         -14.2170   -6.5360   57.9740 C.ar    1  UNL1        0.0301
      2 C         -12.1940   -4.7730   58.6730 C.ar    1  UNL1        0.0612
      3 C         -21.4930   -4.1640   60.4370 C.3     1  UNL1        0.1301
      4 C         -20.3200   -4.5200   61.3530 C.3     1  UNL1        0.1186
      5 C         -16.8650   -5.7630   58.9570 C.3     1  UNL1        0.0366
      6 C         -21.6180   -6.3260   62.5190 C.3     1  UNL1        0.1599
      7 C         -16.8440   -6.6380   61.8040 C.3     1  UNL1        0.1045
      8 C         -18.1340   -5.9920   59.7540 C.2     1  UNL1       -0.0251
      9 C         -14.3920   -5.6880   59.0670 C.ar    1  UNL1        0.0138
     10 C         -13.0330   -6.4970   57.2420 C.ar    1  UNL1        0.1672
     11 C         -13.3710   -4.8180   59.4060 C.ar    1  UNL1        0.1387
     12 C         -12.0170   -5.6250   57.5840 C.ar    1  UNL1        0.1696
     13 C         -22.8210   -5.7130   61.8680 C.ar    1  UNL1        0.1636
     14 C         -24.0170   -4.4850   60.6140 C.ar    1  UNL1        0.2383
     15 C         -15.6410   -5.7070   59.8670 C.3     1  UNL1        0.0967
     16 C         -15.6920   -6.8860   60.8410 C.3     1  UNL1        0.2574
     17 C         -18.1330   -6.4410   61.0340 C.2     1  UNL1        0.0335
     18 C         -19.3750   -6.7940   61.7260 C.2     1  UNL1        0.2453
     19 C         -24.4780   -3.4630   59.6160 C.3     1  UNL1        0.4524
     20 N         -14.4730   -7.0730   61.5970 N.4     1  UNL1        0.5912
     21 N         -24.1220   -6.0360   62.1010 N.ar    1  UNL1       -0.1316
     22 N         -24.9170   -5.2260   61.2760 N.ar    1  UNL1       -0.1249
     23 N         -22.7440   -4.7440   60.9390 N.ar    1  UNL1       -0.2924
     24 N         -20.3920   -5.9180   61.8220 N.am    1  UNL1       -0.2673
     25 O         -19.4220   -7.9040   62.2380 O.2     1  UNL1       -0.2702
     26 F         -12.8630   -7.3060   56.1900 F       1  UNL1       -0.2018
     27 F         -13.5090   -4.0080   60.4530 F       1  UNL1       -0.2044
     28 F         -10.8680   -5.6140   56.8660 F       1  UNL1       -0.2017
     29 F         -25.7320   -3.1950   59.9180 F       1  UNL1       -0.1632
     30 F         -23.7790   -2.3390   59.7030 F       1  UNL1       -0.1632
     31 F         -24.4150   -3.9670   58.3890 F       1  UNL1       -0.1632
@<TRIPOS>UNITY_ATOM_ATTR
20 1
charge 1
@<TRIPOS>BOND
     1     1     9   ar
     2     1    10   ar
     3     2    11   ar
     4     2    12   ar
     5     3     4    1
     6     3    23    1
     7     4    24    1
     8     5     8    1
     9     5    15    1
    10     6    13    1
    11     6    24    1
    12     7    16    1
    13     7    17    1
    14     8    17    2
    15     9    11   ar
    16    15     9    1
    17    10    12   ar
    18    10    26    1
    19    11    27    1
    20    12    28    1
    21    13    21   ar
    22    13    23   ar
    23    14    19    1
    24    14    22   ar
    25    14    23   ar
    26    15    16    1
    27    16    20    1
    28    17    18    1
    29    18    24   am
    30    18    25    2
    31    19    29    1
    32    19    30    1
    33    19    31    1
    34    21    22   ar
