@<TRIPOS>MOLECULE
HYZ_1_2RGP
 33 37 0 0 0
SMALL
GASTEIGER

@<TRIPOS>ATOM
      1 C          16.0310   40.2220   97.6320 C.ar    1  UNL1        0.0020
      2 C          16.8780   39.0760   97.6860 C.ar    1  UNL1       -0.0022
      3 C          14.7180   40.1160   97.0990 C.ar    1  UNL1        0.0296
      4 C          17.3900   35.7120   92.7350 C.ar    1  UNL1        0.0181
      5 C          17.5140   36.1290   94.0760 C.ar    1  UNL1        0.0201
      6 C          15.0830   37.7300   96.6750 C.ar    1  UNL1        0.0273
      7 C          15.9650   33.8170   93.4030 C.ar    1  UNL1        0.0196
      8 C          15.5850   33.7600   95.9940 C.ar    1  UNL1        0.1216
      9 C          13.0410   34.3520   90.2010 C.ar    1  UNL1        0.2013
     10 C          20.5540   31.1900   85.6350 C.3     1  UNL1        0.0030
     11 C          19.5090   31.9970   84.8580 C.3     1  UNL1        0.0189
     12 C          20.5730   31.5960   87.1120 C.3     1  UNL1        0.0189
     13 C          18.1270   31.9340   85.5370 C.3     1  UNL1        0.0901
     14 C          19.1670   31.5240   87.7400 C.3     1  UNL1        0.0901
     15 C          16.6440   33.3950   88.1860 C.3     1  UNL1        0.1399
     16 C          17.3230   36.5580   97.2600 C.3     1  UNL1        0.1538
     17 C          16.4190   37.8080   97.2090 C.ar    1  UNL1        0.0043
     18 C          16.6250   34.5740   92.3820 C.ar    1  UNL1        0.0723
     19 C          14.2560   38.8690   96.6250 C.ar    1  UNL1        0.1399
     20 C          16.8400   35.3580   95.0700 C.ar    1  UNL1        0.0798
     21 C          16.0750   34.2210   94.7560 C.ar    1  UNL1        0.0395
     22 C          15.3910   33.7190   88.8960 C.ar    1  UNL1        0.0650
     23 C          14.1240   33.6450   88.2640 C.ar    1  UNL1        0.1716
     24 C          15.3910   34.1200   90.2310 C.ar    1  UNL1        0.1536
     25 N          13.9670   33.2580   86.9490 N.pl3   1  UNL1       -0.1073
     26 N          15.9710   34.5190   97.0190 N.ar    1  UNL1       -0.1674
     27 N          12.9540   33.9630   88.9110 N.ar    1  UNL1       -0.2059
     28 N          14.2120   34.4440   90.8920 N.ar    1  UNL1       -0.2074
     29 N          16.9000   32.2900   87.5590 N.3     1  UNL1       -0.1418
     30 N          16.5250   34.2480   91.0370 N.pl3   1  UNL1       -0.1942
     31 N          16.7310   35.4930   96.4340 N.ar    1  UNL1       -0.2464
     32 N          18.1460   32.3440   86.9840 N.3     1  UNL1       -0.2036
     33 F          13.0110   38.7560   96.1180 F       1  UNL1       -0.2042
@<TRIPOS>BOND
     1     1     2   ar
     2     1     3   ar
     3     2    17   ar
     4     3    19   ar
     5     4     5   ar
     6     4    18   ar
     7     5    20   ar
     8     6    17   ar
     9     6    19   ar
    10     7    18   ar
    11     7    21   ar
    12     8    21   ar
    13     8    26   ar
    14     9    27   ar
    15     9    28   ar
    16    10    11    1
    17    10    12    1
    18    11    13    1
    19    12    14    1
    20    13    32    1
    21    14    32    1
    22    15    22    1
    23    15    29    1
    24    16    17    1
    25    16    31    1
    26    18    30    1
    27    19    33    1
    28    20    21   ar
    29    20    31   ar
    30    22    23   ar
    31    22    24   ar
    32    23    25    1
    33    23    27   ar
    34    24    28   ar
    35    24    30    1
    36    26    31   ar
    37    29    32    1
