@<TRIPOS>MOLECULE
*****
 23 24 0 0 0
SMALL
GASTEIGER

@<TRIPOS>ATOM
      1 C          12.4240   19.4450   22.7230 C.3     1  UNL1        0.0342
      2 C           7.9580   19.1110   22.2270 C.ar    1  UNL1        0.1990
      3 N           8.1130   22.7200   22.8350 N.am    1  UNL1       -0.1953
      4 O           6.6120   19.0100   22.0640 O.3     1  UNL1       -0.2866
      5 C           8.7640   18.0060   21.9300 C.ar    1  UNL1        0.0168
      6 N           7.9110   24.3440   25.4130 N.4     1  UNL1        0.3743
      7 O          10.4870   21.5450   23.3030 O.3     1  UNL1       -0.4715
      8 C          10.1480   18.1280   22.0720 C.ar    1  UNL1       -0.0024
      9 O           6.3960   21.3210   23.2770 O.2     1  UNL1       -0.2681
     10 C          10.7110   19.3190   22.5240 C.ar    1  UNL1        0.0122
     11 C           9.9020   20.4090   22.8400 C.ar    1  UNL1        0.1422
     12 C          10.7470   21.3910   24.7050 C.3     1  UNL1        0.2525
     13 C           8.5110   20.3090   22.7030 C.ar    1  UNL1        0.1270
     14 C           7.5760   21.5070   22.9890 C.2     1  UNL1        0.2710
     15 C           7.3610   23.9750   23.0350 C.3     1  UNL1        0.1717
     16 C           6.8120   24.0730   24.4630 C.3     1  UNL1        0.1092
     17 C           5.8560   25.2590   24.5600 C.3     1  UNL1        0.0647
     18 C           6.7760   26.3970   24.9700 C.3     1  UNL1        0.0687
     19 C           7.7120   25.7060   25.9500 C.3     1  UNL1        0.1385
     20 C           7.8450   23.3630   26.5050 C.3     1  UNL1        0.1385
     21 C           9.2140   23.1980   27.1480 C.3     1  UNL1        0.0688
     22 C           8.2410   16.6670   21.3800 C.3     1  UNL1        0.0296
     23 C           7.2470   15.9870   22.3250 C.3     1  UNL1        0.0051
@<TRIPOS>UNITY_ATOM_ATTR
6 1
charge 1
@<TRIPOS>BOND
     1     5    22    1
     2    22    23    1
     3     5     8   ar
     4     2     5   ar
     5     2     4    1
     6     8    10   ar
     7     2    13   ar
     8     1    10    1
     9    10    11   ar
    10    11    13   ar
    11    13    14    1
    12     3    14   am
    13     3    15    1
    14     7    11    1
    15     9    14    2
    16    16    15    1
    17     7    12    1
    18    16    17    1
    19     6    16    1
    20    17    18    1
    21    18    19    1
    22     6    19    1
    23     6    20    1
    24    20    21    1
