@<TRIPOS>MOLECULE
A92_351_3L3M
 25 28 0 0 0
SMALL
GASTEIGER

@<TRIPOS>ATOM
      1 C          23.1200    7.5990   24.0440 C.ar    1  UNL1        0.0018
      2 C          22.8040    8.7820   23.4140 C.ar    1  UNL1        0.0062
      3 C          24.0070    7.5420   25.0950 C.ar    1  UNL1        0.0207
      4 C          27.3410   12.9870   28.4090 C.ar    1  UNL1        0.0016
      5 C          26.4820   12.3000   27.5780 C.ar    1  UNL1        0.0052
      6 C          28.6460   11.0240   28.6900 C.ar    1  UNL1        0.0311
      7 C          29.7750   13.6030   32.2360 C.3     1  UNL1        0.0129
      8 C          30.1780   15.0010   31.8350 C.3     1  UNL1        0.0691
      9 C          28.7530   13.0680   31.2650 C.3     1  UNL1        0.0677
     10 C          30.6730   15.0210   30.4090 C.3     1  UNL1        0.2008
     11 C          28.4250   12.3500   28.9680 C.ar    1  UNL1        0.0361
     12 C          26.6910   10.9670   27.3020 C.ar    1  UNL1        0.0632
     13 C          23.3840    9.9690   23.7940 C.ar    1  UNL1        0.0758
     14 C          24.5840    8.7360   25.4850 C.ar    1  UNL1        0.1007
     15 C          27.7860   10.3430   27.8630 C.ar    1  UNL1        0.1429
     16 C          24.2810    9.9110   24.8340 C.ar    1  UNL1        0.1050
     17 C          25.7690   10.2530   26.4470 C.ar    1  UNL1        0.1644
     18 C          29.3590   13.0510   29.8860 C.3     1  UNL1        0.1666
     19 C          23.0150   11.2080   23.1100 C.2     1  UNL1        0.2857
     20 N          23.7070   12.3020   23.5630 N.am    1  UNL1       -0.0837
     21 N          25.0340   10.8580   25.4660 N.ar    1  UNL1       -0.2249
     22 N          25.4970    8.9650   26.4760 N.ar    1  UNL1       -0.2250
     23 N          29.6010   14.4680   29.5490 N.4     1  UNL1        0.4467
     24 O          22.1520   11.1890   22.2410 O.2     1  UNL1       -0.2666
     25 F          28.0630    9.0520   27.6280 F       1  UNL1       -0.2041
@<TRIPOS>UNITY_ATOM_ATTR
23 1
charge 1
@<TRIPOS>BOND
     1     1     2   ar
     2     1     3   ar
     3     2    13   ar
     4     3    14   ar
     5     4     5   ar
     6     4    11   ar
     7     5    12   ar
     8     6    11   ar
     9     6    15   ar
    10     7     8    1
    11     7     9    1
    12     8    10    1
    13     9    18    1
    14    10    23    1
    15    18    11    1
    16    12    15   ar
    17    12    17    1
    18    13    16   ar
    19    13    19    1
    20    14    16   ar
    21    14    22   ar
    22    15    25    1
    23    16    21   ar
    24    17    21   ar
    25    17    22   ar
    26    18    23    1
    27    19    20   am
    28    19    24    2
