@<TRIPOS>MOLECULE
735_469_2P54
 33 35 0 0 0
SMALL
GASTEIGER

@<TRIPOS>ATOM
      1 C          11.3340   38.5270   30.6240 C.3     1  UNL1        0.0528
      2 C          10.7040   42.9690   21.6290 C.3     1  UNL1        0.0495
      3 C          12.4890   41.7080   22.9210 C.3     1  UNL1        0.0495
      4 C          10.4630   39.2930   26.1770 C.ar    1  UNL1        0.0006
      5 C          10.6780   37.7500   24.2950 C.ar    1  UNL1        0.0006
      6 C          17.4610   38.7740   31.4610 C.ar    1  UNL1        0.0020
      7 C          15.9470   40.1280   32.8040 C.ar    1  UNL1        0.0020
      8 C          18.5280   39.1460   32.2820 C.ar    1  UNL1        0.0039
      9 C          17.0260   40.4990   33.6260 C.ar    1  UNL1        0.0039
     10 C          10.2460   40.3530   25.2760 C.ar    1  UNL1        0.0366
     11 C          10.4600   38.8120   23.3960 C.ar    1  UNL1        0.0366
     12 C          10.9270   36.7910   26.5800 C.3     1  UNL1        0.1418
     13 C          12.7960   38.3530   30.2760 C.ar    1  UNL1        0.0704
     14 C          10.6850   37.9790   25.6820 C.ar    1  UNL1       -0.0004
     15 C          16.1600   39.2560   31.7170 C.ar    1  UNL1        0.0238
     16 C          18.3200   40.0100   33.3770 C.ar    1  UNL1        0.0714
     17 C          10.2480   40.1170   23.8920 C.ar    1  UNL1        0.1387
     18 C          13.4500   37.9350   29.1690 C.ar    1  UNL1        0.0993
     19 C          15.0540   38.8430   30.8690 C.ar    1  UNL1        0.1104
     20 C          12.8710   37.3880   27.9350 C.2     1  UNL1        0.2723
     21 C          11.2580   40.6940   20.9760 C.2     1  UNL1        0.0863
     22 C          11.1340   41.6070   22.1970 C.3     1  UNL1        0.1646
     23 C          19.4870   40.3810   34.2720 C.3     1  UNL1        0.4186
     24 N          13.7580   38.9120   31.2150 N.ar    1  UNL1       -0.2425
     25 N          11.5570   37.1190   27.8330 N.am    1  UNL1       -0.1963
     26 O          12.3430   40.2150   20.6370 O.co2   1  UNL1       -0.5457
     27 O          13.6940   37.2080   27.0350 O.2     1  UNL1       -0.2678
     28 O          10.2410   40.4190   20.3400 O.co2   1  UNL1       -0.5457
     29 O          10.0410   41.1880   23.0170 O.3     1  UNL1       -0.4774
     30 F          19.2790   41.5360   34.8480 F       1  UNL1       -0.1659
     31 F          20.6060   40.3670   33.5900 F       1  UNL1       -0.1659
     32 F          19.5540   39.4490   35.1910 F       1  UNL1       -0.1659
     33 S          15.1700   38.1210   29.2670 S.2     1  UNL1       -0.0622
@<TRIPOS>UNITY_ATOM_ATTR
26 1
charge -1
@<TRIPOS>BOND
     1     1    13    1
     2     2    22    1
     3     3    22    1
     4     4    10   ar
     5     4    14   ar
     6     5    11   ar
     7     5    14   ar
     8     6     8   ar
     9     6    15   ar
    10     7     9   ar
    11     7    15   ar
    12     8    16   ar
    13     9    16   ar
    14    10    17   ar
    15    11    17   ar
    16    12    14    1
    17    12    25    1
    18    13    18   ar
    19    13    24   ar
    20    15    19    1
    21    16    23    1
    22    17    29    1
    23    18    20    1
    24    18    33   ar
    25    19    24   ar
    26    19    33   ar
    27    20    25   am
    28    20    27    2
    29    21    22    1
    30    21    26   ar
    31    21    28   ar
    32    22    29    1
    33    23    30    1
    34    23    31    1
    35    23    32    1
